
  EPA STORM WATER MANAGEMENT MODEL - VERSION 5.1 (Build 5.1.010)
  --------------------------------------------------------------

  TEST1 
  FLAT SLOPE EXAMPLE 
  WARNING 04: minimum elevation drop used for Conduit 1
  WARNING 04: minimum elevation drop used for Conduit 2
  WARNING 04: minimum elevation drop used for Conduit 3
  WARNING 04: minimum elevation drop used for Conduit 4
  WARNING 04: minimum elevation drop used for Conduit 5
  WARNING 04: minimum elevation drop used for Conduit 6

  Analysis begun on:  Sun Jul 24 15:26:42 2016
  Analysis ended on:  Sun Jul 24 15:26:53 2016
  Total elapsed time: 00:00:11