
  EPA STORM WATER MANAGEMENT MODEL - VERSION 5.1 (Build 5.1.010)
  --------------------------------------------------------------

  TEST1 
  FLAT SLOPE EXAMPLE 
  WARNING 04: minimum elevation drop used for Conduit 7
  WARNING 04: minimum elevation drop used for Conduit 8
  WARNING 04: minimum elevation drop used for Conduit 9
  WARNING 04: minimum elevation drop used for Conduit 10

  Analysis begun on:  Fri May 27 01:26:26 2016
  Analysis ended on:  Fri May 27 01:28:40 2016
  Total elapsed time: 00:02:14