
  EPA STORM WATER MANAGEMENT MODEL - VERSION 5.1 (Build 5.1.010)
  --------------------------------------------------------------

  TEST1 
  FLAT SLOPE EXAMPLE 
  WARNING 04: minimum elevation drop used for Conduit 7
  WARNING 04: minimum elevation drop used for Conduit 8
  WARNING 04: minimum elevation drop used for Conduit 9
  WARNING 04: minimum elevation drop used for Conduit 10
  
  *********************************************************
  NOTE: The summary statistics displayed in this report are
  based on results found at every computational time step,  
  not just on results from each reporting time step.
  *********************************************************
  
  ****************
  Analysis Options
  ****************
  Flow Units ............... CFS
  Process Models:
    Rainfall/Runoff ........ NO
    RDII ................... NO
    Snowmelt ............... NO
    Groundwater ............ NO
    Flow Routing ........... YES
    Ponding Allowed ........ NO
    Water Quality .......... NO
  Flow Routing Method ...... DYNWAVE
  Starting Date ............ FEB-02-2002 00:00:00
  Ending Date .............. FEB-02-2002 05:00:00
  Antecedent Dry Days ...... 0.0
  Report Time Step ......... 00:00:30
  Routing Time Step ........ 5.00 sec
  Variable Time Step ....... NO
  Maximum Trials ........... 8
  Number of Threads ........ 1
  Head Tolerance ........... 0.005000 ft
  
  
  **************************        Volume        Volume
  Flow Routing Continuity        acre-feet      10^6 gal
  **************************     ---------     ---------
  Dry Weather Inflow .......         0.000         0.000
  Wet Weather Inflow .......         0.000         0.000
  Groundwater Inflow .......         0.000         0.000
  RDII Inflow ..............         0.000         0.000
  External Inflow ..........        24.831         8.092
  External Outflow .........        24.829         8.091
  Flooding Loss ............         0.000         0.000
  Evaporation Loss .........         0.000         0.000
  Exfiltration Loss ........         0.000         0.000
  Initial Stored Volume ....         0.000         0.000
  Final Stored Volume ......         0.002         0.001
  Continuity Error (%) .....        -0.000
  
  
  ********************************
  Highest Flow Instability Indexes
  ********************************
  All links are stable.
  
  
  *************************
  Routing Time Step Summary
  *************************
  Minimum Time Step           :     5.00 sec
  Average Time Step           :     5.00 sec
  Maximum Time Step           :     5.00 sec
  Percent in Steady State     :     0.00
  Average Iterations per Step :     2.10
  Percent Not Converging      :     0.44
  
  
  ******************
  Node Depth Summary
  ******************
  
  ---------------------------------------------------------------------------------
                                 Average  Maximum  Maximum  Time of Max    Reported
                                   Depth    Depth      HGL   Occurrence   Max Depth
  Node                 Type         Feet     Feet     Feet  days hr:min        Feet
  ---------------------------------------------------------------------------------
  6                    JUNCTION     3.08     4.90    14.90     0  00:15        4.89
  7                    JUNCTION     2.86     4.53    14.53     0  00:15        4.53
  8                    JUNCTION     2.65     4.17    14.17     0  00:15        4.17
  9                    JUNCTION     2.42     3.81    13.81     0  00:15        3.80
  10                   OUTFALL      1.91     3.05    13.05     0  00:15        3.05
  
  
  *******************
  Node Inflow Summary
  *******************
  
  -------------------------------------------------------------------------------------------------
                                  Maximum  Maximum                  Lateral       Total        Flow
                                  Lateral    Total  Time of Max      Inflow      Inflow     Balance
                                   Inflow   Inflow   Occurrence      Volume      Volume       Error
  Node                 Type           CFS      CFS  days hr:min    10^6 gal    10^6 gal     Percent
  -------------------------------------------------------------------------------------------------
  6                    JUNCTION    100.93   100.93     0  00:15        8.09        8.09      -0.002
  7                    JUNCTION      0.00   101.06     0  00:15           0        8.09       0.006
  8                    JUNCTION      0.00   101.23     0  00:15           0        8.09       0.002
  9                    JUNCTION      0.00   101.33     0  00:15           0        8.09       0.003
  10                   OUTFALL       0.00   101.42     0  00:15           0        8.09       0.000
  
  
  **********************
  Node Surcharge Summary
  **********************
  
  Surcharging occurs when water rises above the top of the highest conduit.
  ---------------------------------------------------------------------
                                               Max. Height   Min. Depth
                                   Hours       Above Crown    Below Rim
  Node                 Type      Surcharged           Feet         Feet
  ---------------------------------------------------------------------
  6                    JUNCTION        2.87          0.898        5.102
  7                    JUNCTION        2.83          0.532        5.468
  8                    JUNCTION        2.78          0.169        5.831
  
  
  *********************
  Node Flooding Summary
  *********************
  
  No nodes were flooded.
  
  
  ***********************
  Outfall Loading Summary
  ***********************
  
  -----------------------------------------------------------
                         Flow       Avg       Max       Total
                         Freq      Flow      Flow      Volume
  Outfall Node           Pcnt       CFS       CFS    10^6 gal
  -----------------------------------------------------------
  10                    98.56     60.97    101.42       8.090
  -----------------------------------------------------------
  System                98.56     60.97    101.42       8.090
  
  
  ********************
  Link Flow Summary
  ********************
  
  -----------------------------------------------------------------------------
                                 Maximum  Time of Max   Maximum    Max/    Max/
                                  |Flow|   Occurrence   |Veloc|    Full    Full
  Link                 Type          CFS  days hr:min    ft/sec    Flow   Depth
  -----------------------------------------------------------------------------
  7                    CONDUIT    101.06     0  00:15      8.04   18.83    1.00
  8                    CONDUIT    101.23     0  00:15      8.06   18.86    1.00
  9                    CONDUIT    101.33     0  00:15      8.12   18.88    0.98
  10                   CONDUIT    101.42     0  00:15      8.85   18.89    0.86
  
  
  ***************************
  Flow Classification Summary
  ***************************
  
  -------------------------------------------------------------------------------------
                      Adjusted    ---------- Fraction of Time in Flow Class ---------- 
                       /Actual         Up    Down  Sub   Sup   Up    Down  Norm  Inlet 
  Conduit               Length    Dry  Dry   Dry   Crit  Crit  Crit  Crit  Ltd   Ctrl  
  -------------------------------------------------------------------------------------
  7                       1.00   0.01  0.00  0.00  0.99  0.00  0.00  0.00  0.01  0.00
  8                       1.00   0.01  0.00  0.00  0.99  0.00  0.00  0.00  0.00  0.00
  9                       1.00   0.01  0.00  0.00  0.99  0.00  0.00  0.00  0.00  0.00
  10                      1.00   0.01  0.00  0.00  0.99  0.00  0.00  0.00  0.00  0.00
  
  
  *************************
  Conduit Surcharge Summary
  *************************
  
  ----------------------------------------------------------------------------
                                                           Hours        Hours 
                         --------- Hours Full --------   Above Full   Capacity
  Conduit                Both Ends  Upstream  Dnstream   Normal Flow   Limited
  ----------------------------------------------------------------------------
  7                           2.83      2.87      2.83      3.24         2.83
  8                           2.78      2.83      2.78      3.25         2.78
  9                           0.01      2.78      0.01      3.25         0.01
  10                          0.01      0.01      0.01      3.24         0.01
  

  Analysis begun on:  Fri May 27 16:19:52 2016
  Analysis ended on:  Fri May 27 16:20:04 2016
  Total elapsed time: 00:00:12